ACQUIRE
ASSIGN
CONNECT
DBCLEAN
DBDICT
DBDIR
DBFIX
DBLOAD
DBLOCATE
DBSETDEL
DBUNLOAD
DBUPDATE
DEFINE
ENDJOB
EXPAND
INCLUDE
INIT
MEMLIST
PROJ
RESTART
ALTER
APP
COMPILE
COMPILER
DIAG
DOMAINSOLVER
ECHO
ENDALTER
GEOMCHECK
ID
INCLUDE
LINK
MALTER
MODEL_CHECK
SOL 700,ID
SOL
SPARSESOLVER
TIME
CEND
$S700
A2GG
ACCELERATION
ACFPMRESULT
ACPOWER
ACTRIM
ADAMSMNF
AECONFIG
AERCONFIG
AEROF
AESYMXY
AESYMXZ
AEUXREF
ANALYSIS
APRESSURE
AUTOSPC
AUXCASE
AUXMODEL
AVLEXB
AXISYMMETRIC
B2GG
B2PP
BC
BCHANGE
BCMOVE
BCONCHK
BCONTACT
BENDL
BOUTPUT
BSQUEAL
CAMPBELL
CLOAD
CMETHOD
CMSENRGY
COSMSEL
CSSCHD
DBSAVE
DEACTEL
DEFORM
DESGLB
DESMOD
DESOBJ
DESSUB
DESVAR
DISPLACEMENT
DIVERG
DLOAD
DRSPAN
DSAPRT
DSYM
DYSTIFF
ECHO
EDE
EKE
ELAFORCES
ELSDCON
ELSENS
ELSUM
ENDMODULE
ENDSTEP
ENDTIME
ENTHALPY
EQUILIBRIUM
ERP
ESE
EXPORTLD
EXTDRIN
EXTDROUT
EXTMDOUT
EXTSEOUT
FATIGUE
FBODYLD
FEMCHECK
FLSFSEL
FLSPOUT
FLSTCNT
FLUX
FMETHOD
FORCE
FREQUENCY
FRF
GPFORCE
GPKE
GPRSORT
GPSDCON
GPSTRAIN
GPSTRESS
GROUNDCHECK
GUST
GVECTOR
HADAPT
HARMONICS
HDOT
HOUTPUT
HTFLOW
IC
ICF
IMPERFECT
INCLUDE
INTENSITY
IRLOAD
K2GG
K2PP
K42GG
LABEL
LDLABEL
LINE
LOAD
LOADNAME
LOADSET
M2GG
M2PP
MAPMODES
MASSSET
MASTER
MAXLINES
MAXMIN(DEF)
MAXMIN
MCFRACTION
MEFFMASS
METHOD
MFLUID
MFREQUENCY
MODALKE
MODALSE
MODES
MODESELECT
MODTRAK
MONCARL
MONITOR
MPC
MPCFORCES
MPRES
NLBUCK
NLHARM
NLIC
NLLOAD
NLOPRM
NLPARM
NLRESTART
NLSTEP
NLSTRESS
NONLINEAR
NOUTPUT
NSM
NVELOCITY
OFREQUENCY
OIMPERFECT
OLOAD
OMODES
OTIME
OUTPUT
P2G
PACCELERATION
PAGE
PARAM
PARTN
PEAKOUT
PFGRID
PFMODE
PFPANEL
PLOTID
POST
PRESSURE
RANDOM
RANDOUT
RCROSS
RELDISP
REPCASE
RESVEC
RGYRO
RIGID
ROTBENT
ROTSEKE
RSDAMP
SACCELERATION
SDAMPING
SDISPLACEMENT
SEALL
SEDAMP
SEDR
SEDV
SEEXCLUDE
SEFINAL
SEKREDUCE
SELGENERATE
SELREDUCE
SEMGENERATE
SEMREDUCE
SERESP
SET
SETP
SETS DEFINITION
SKIP
SLDSKIN
SMETHOD
SOLUTION
SPC
SPCFORCES
SPLINOUT
STATSUB
STEP
STOCHASTICS
STRAIN
STRESS
STRFIELD
SUBCASE
SUBCOM
SUBSEQ
SUBSEQ1
SUBSTEP
SUBTITLE
SUPER
SUPORT1
SVECTOR
SVELOCITY
SYM
SYMCOM
SYMSEQ
TACCELERATION
TDISPLACEMENT
TEMPERATURE
TFL
THERMAL
TIRE
TRIM
TRIMF
TRIMGRP
TSTEP
TSTEPNL
TSTRU
TVELOCITY
UNGLUE
VCCT
VECTOR
VELOCITY
VINTENSITY
WEIGHTCHECK
WETSENS
BEGIN BULK
ABINFL         1       2       3       4       5       6       7       8       9
ABSNMVB        1       2       3       4       5       6       7       8       9
ABSNMVI        1       2       3       4       5       6       7       8       9
ABSNMVR        1       2       3       4       5       6       7       8       9
ABSNMVS        1       2       3       4       5       6       7       8       9
ABSTRCT        1       2       3       4       5       6       7       8       9
ACCEL          1       2       3       4       5       6       7       8       9
ACCEL1         1       2       3       4       5       6       7       8       9
ACCSSPT        1       2       3       4       5       6       7       8       9
ACLOAD         1       2       3       4       5       6       7       8       9
ACMODL         1       2       3       4       5       6       7       8       9
ACPEMCP        1       2       3       4       5       6       7       8       9
ACPMCP1        1       2       3       4       5       6       7       8       9
ACSRCE         1       2       3       4       5       6       7       8       9
ACTRIM         1       2       3       4       5       6       7       8       9
ADUMi          1       2       3       4       5       6       7       8       9
AECOMP         1       2       3       4       5       6       7       8       9
AECOMPL        1       2       3       4       5       6       7       8       9
AEDW           1       2       3       4       5       6       7       8       9
AEFACT         1       2       3       4       5       6       7       8       9
AEFORCE        1       2       3       4       5       6       7       8       9
AEGRID         1       2       3       4       5       6       7       8       9
AELINK         1       2       3       4       5       6       7       8       9
AELIST         1       2       3       4       5       6       7       8       9
AELISTC        1       2       3       4       5       6       7       8       9
AEPARM         1       2       3       4       5       6       7       8       9
AEPRESS        1       2       3       4       5       6       7       8       9
AEQUAD4        1       2       3       4       5       6       7       8       9
AERO           1       2       3       4       5       6       7       8       9
AEROS          1       2       3       4       5       6       7       8       9
AESCALE        1       2       3       4       5       6       7       8       9
AESTAT         1       2       3       4       5       6       7       8       9
AESURF         1       2       3       4       5       6       7       8       9
AESURFS        1       2       3       4       5       6       7       8       9
AETRIA3        1       2       3       4       5       6       7       8       9
ASET           1       2       3       4       5       6       7       8       9
ASET1          1       2       3       4       5       6       7       8       9
ATBACC         1       2       3       4       5       6       7       8       9
ATBJNT         1       2       3       4       5       6       7       8       9
ATBSEG         1       2       3       4       5       6       7       8       9
AXIC           1       2       3       4       5       6       7       8       9
AXIF           1       2       3       4       5       6       7       8       9
AXSLOT         1       2       3       4       5       6       7       8       9
BAROR          1       2       3       4       5       6       7       8       9
BARRIER        1       2       3       4       5       6       7       8       9
BCAUTOP        1       2       3       4       5       6       7       8       9
BCBDPRP        1       2       3       4       5       6       7       8       9
BCBMRAD        1       2       3       4       5       6       7       8       9
BCBODY         1       2       3       4       5       6       7       8       9
BCBODY1        1       2       3       4       5       6       7       8       9
BCBOX          1       2       3       4       5       6       7       8       9
BCBZIER        1       2       3       4       5       6       7       8       9
BCELIPS        1       2       3       4       5       6       7       8       9
BCGRID         1       2       3       4       5       6       7       8       9
BCHANGE        1       2       3       4       5       6       7       8       9
BCMATL         1       2       3       4       5       6       7       8       9
BCMOVE         1       2       3       4       5       6       7       8       9
BCNURB2        1       2       3       4       5       6       7       8       9
BCNURBS        1       2       3       4       5       6       7       8       9
BCONECT        1       2       3       4       5       6       7       8       9
BCONP          1       2       3       4       5       6       7       8       9
BCONPRG        1       2       3       4       5       6       7       8       9
BCONPRP        1       2       3       4       5       6       7       8       9
BCONUDS        1       2       3       4       5       6       7       8       9
BCPARA         1       2       3       4       5       6       7       8       9
BCPATCH        1       2       3       4       5       6       7       8       9
BCPFLG         1       2       3       4       5       6       7       8       9
BCPROP         1       2       3       4       5       6       7       8       9
BCRGSRF        1       2       3       4       5       6       7       8       9
BCRIGID        1       2       3       4       5       6       7       8       9
BCSCAP         1       2       3       4       5       6       7       8       9
BCSEG          1       2       3       4       5       6       7       8       9
BCSURF         1       2       3       4       5       6       7       8       9
BCTABL1        1       2       3       4       5       6       7       8       9
BCTABLE        1       2       3       4       5       6       7       8       9
BCTRIM         1       2       3       4       5       6       7       8       9
BDYLIST        1       2       3       4       5       6       7       8       9
BDYOR          1       2       3       4       5       6       7       8       9
BEADVAR        1       2       3       4       5       6       7       8       9
BEAMOR         1       2       3       4       5       6       7       8       9
BFRlC          1       2       3       4       5       6       7       8       9
BIAS           1       2       3       4       5       6       7       8       9
BJOIN          1       2       3       4       5       6       7       8       9
BLSEG          1       2       3       4       5       6       7       8       9
BNDFIX         1       2       3       4       5       6       7       8       9
BNDFIX1        1       2       3       4       5       6       7       8       9
BNDFRE1        1       2       3       4       5       6       7       8       9
BNDFREE        1       2       3       4       5       6       7       8       9
BNDGRID        1       2       3       4       5       6       7       8       9
BOLT           1       2       3       4       5       6       7       8       9
BOLT1          1       2       3       4       5       6       7       8       9
BOUTPUT        1       2       3       4       5       6       7       8       9
BRKPROP        1       2       3       4       5       6       7       8       9
BRKSYS         1       2       3       4       5       6       7       8       9
BSET           1       2       3       4       5       6       7       8       9
BSET1          1       2       3       4       5       6       7       8       9
BSQUEAL        1       2       3       4       5       6       7       8       9
BSURF          1       2       3       4       5       6       7       8       9
BWIDTH         1       2       3       4       5       6       7       8       9
CAABSF         1       2       3       4       5       6       7       8       9
CACINF3        1       2       3       4       5       6       7       8       9
CACINF4        1       2       3       4       5       6       7       8       9
CAERO1         1       2       3       4       5       6       7       8       9
CAERO2         1       2       3       4       5       6       7       8       9
CAERO3         1       2       3       4       5       6       7       8       9
CAERO4         1       2       3       4       5       6       7       8       9
CAERO5         1       2       3       4       5       6       7       8       9
CAMPBLL        1       2       3       4       5       6       7       8       9
CAXIFi         1       2       3       4       5       6       7       8       9
CAXISYM        1       2       3       4       5       6       7       8       9
CBAR           1       2       3       4       5       6       7       8       9
CBARAO         1       2       3       4       5       6       7       8       9
CBEAM          1       2       3       4       5       6       7       8       9
CBEAM3         1       2       3       4       5       6       7       8       9
CBEND          1       2       3       4       5       6       7       8       9
CBUSH          1       2       3       4       5       6       7       8       9
CBUSH1D        1       2       3       4       5       6       7       8       9
CBUSH2D        1       2       3       4       5       6       7       8       9
CCONEAX        1       2       3       4       5       6       7       8       9
CDAMP1         1       2       3       4       5       6       7       8       9
CDAMP1D        1       2       3       4       5       6       7       8       9
CDAMP2         1       2       3       4       5       6       7       8       9
CDAMP2D        1       2       3       4       5       6       7       8       9
CDAMP3         1       2       3       4       5       6       7       8       9
CDAMP4         1       2       3       4       5       6       7       8       9
CDAMP5         1       2       3       4       5       6       7       8       9
CDUMi          1       2       3       4       5       6       7       8       9
CELAS1         1       2       3       4       5       6       7       8       9
CELAS1D        1       2       3       4       5       6       7       8       9
CELAS2         1       2       3       4       5       6       7       8       9
CELAS2D        1       2       3       4       5       6       7       8       9
CELAS3         1       2       3       4       5       6       7       8       9
CELAS4         1       2       3       4       5       6       7       8       9
CFAST          1       2       3       4       5       6       7       8       9
CFLUIDi        1       2       3       4       5       6       7       8       9
CGAP           1       2       3       4       5       6       7       8       9
CHACAB         1       2       3       4       5       6       7       8       9
CHACBR         1       2       3       4       5       6       7       8       9
CHBDYE         1       2       3       4       5       6       7       8       9
CHBDYG         1       2       3       4       5       6       7       8       9
CHBDYP         1       2       3       4       5       6       7       8       9
CHEXA          1       2       3       4       5       6       7       8       9
CIFHEX         1       2       3       4       5       6       7       8       9
CIFPENT        1       2       3       4       5       6       7       8       9
CIFQDX         1       2       3       4       5       6       7       8       9
CIFQUAD        1       2       3       4       5       6       7       8       9
CINTC          1       2       3       4       5       6       7       8       9
CLOAD          1       2       3       4       5       6       7       8       9
CMARKB2        1       2       3       4       5       6       7       8       9
CMARKN1        1       2       3       4       5       6       7       8       9
CMASS1         1       2       3       4       5       6       7       8       9
CMASS2         1       2       3       4       5       6       7       8       9
CMASS3         1       2       3       4       5       6       7       8       9
CMASS4         1       2       3       4       5       6       7       8       9
COHFRIC        1       2       3       4       5       6       7       8       9
COMPUDS        1       2       3       4       5       6       7       8       9
CONCTL         1       2       3       4       5       6       7       8       9
CONM1          1       2       3       4       5       6       7       8       9
CONM2          1       2       3       4       5       6       7       8       9
CONROD         1       2       3       4       5       6       7       8       9
CONTRLT        1       2       3       4       5       6       7       8       9
CONV           1       2       3       4       5       6       7       8       9
CONVM          1       2       3       4       5       6       7       8       9
CORD1C         1       2       3       4       5       6       7       8       9
CORD1R         1       2       3       4       5       6       7       8       9
CORD1S         1       2       3       4       5       6       7       8       9
CORD2C         1       2       3       4       5       6       7       8       9
CORD2R         1       2       3       4       5       6       7       8       9
CORD2S         1       2       3       4       5       6       7       8       9
CORD3G         1       2       3       4       5       6       7       8       9
CORD3R         1       2       3       4       5       6       7       8       9
COSMGRP        1       2       3       4       5       6       7       8       9
COSMINP        1       2       3       4       5       6       7       8       9
COSMOUT        1       2       3       4       5       6       7       8       9
COSMSEL        1       2       3       4       5       6       7       8       9
COSMSRV        1       2       3       4       5       6       7       8       9
COUCOHF        1       2       3       4       5       6       7       8       9
COUOPT         1       2       3       4       5       6       7       8       9
COUP1FL        1       2       3       4       5       6       7       8       9
COUPINT        1       2       3       4       5       6       7       8       9
COUPLE         1       2       3       4       5       6       7       8       9
CPENTA         1       2       3       4       5       6       7       8       9
CPYRAM         1       2       3       4       5       6       7       8       9
CQUAD          1       2       3       4       5       6       7       8       9
CQUAD4         1       2       3       4       5       6       7       8       9
CQUAD8         1       2       3       4       5       6       7       8       9
CQUADR         1       2       3       4       5       6       7       8       9
CQUADX         1       2       3       4       5       6       7       8       9
CRAC2D         1       2       3       4       5       6       7       8       9
CRAC3D         1       2       3       4       5       6       7       8       9
CREEP          1       2       3       4       5       6       7       8       9
CROD           1       2       3       4       5       6       7       8       9
CSEAM          1       2       3       4       5       6       7       8       9
CSET           1       2       3       4       5       6       7       8       9
CSET1          1       2       3       4       5       6       7       8       9
CSHEAR         1       2       3       4       5       6       7       8       9
CSLOT3         1       2       3       4       5       6       7       8       9
CSLOT4         1       2       3       4       5       6       7       8       9
CSPR           1       2       3       4       5       6       7       8       9
CSSCHD         1       2       3       4       5       6       7       8       9
CSUPER         1       2       3       4       5       6       7       8       9
CSUPEXT        1       2       3       4       5       6       7       8       9
CTETRA         1       2       3       4       5       6       7       8       9
CTRIA3         1       2       3       4       5       6       7       8       9
CTRIA6         1       2       3       4       5       6       7       8       9
CTRIAR         1       2       3       4       5       6       7       8       9
CTRIAX         1       2       3       4       5       6       7       8       9
CTRIAX6        1       2       3       4       5       6       7       8       9
CTUBE          1       2       3       4       5       6       7       8       9
CVISC          1       2       3       4       5       6       7       8       9
CWELD          1       2       3       4       5       6       7       8       9
CYAX           1       2       3       4       5       6       7       8       9
CYJOIN         1       2       3       4       5       6       7       8       9
CYLINDR        1       2       3       4       5       6       7       8       9
CYSUP          1       2       3       4       5       6       7       8       9
CYSYM          1       2       3       4       5       6       7       8       9
DAMPING        1       2       3       4       5       6       7       8       9
DAREA          1       2       3       4       5       6       7       8       9
DCONADD        1       2       3       4       5       6       7       8       9
DCONSTR        1       2       3       4       5       6       7       8       9
DDVAL          1       2       3       4       5       6       7       8       9
DEACTEL        1       2       3       4       5       6       7       8       9
DEFORM         1       2       3       4       5       6       7       8       9
DEFUSET        1       2       3       4       5       6       7       8       9
DELAY          1       2       3       4       5       6       7       8       9
DEQATN         1       2       3       4       5       6       7       8       9
DESVAR         1       2       3       4       5       6       7       8       9
DETSPH         1       2       3       4       5       6       7       8       9
DIVERG         1       2       3       4       5       6       7       8       9
DLINK          1       2       3       4       5       6       7       8       9
DLOAD          1       2       3       4       5       6       7       8       9
DMI            1       2       3       4       5       6       7       8       9
DMIAX          1       2       3       4       5       6       7       8       9
DMIG,UACCEL       1       2       3       4       5       6       7       8       9
DMIG           1       2       3       4       5       6       7       8       9
DMIJ           1       2       3       4       5       6       7       8       9
DMIJI          1       2       3       4       5       6       7       8       9
DMIK           1       2       3       4       5       6       7       8       9
DOPTPRM        1       2       3       4       5       6       7       8       9
DPHASE         1       2       3       4       5       6       7       8       9
DRESP1         1       2       3       4       5       6       7       8       9
DRESP2         1       2       3       4       5       6       7       8       9
DRESP3         1       2       3       4       5       6       7       8       9
DSCREEN        1       2       3       4       5       6       7       8       9
DTABLE         1       2       3       4       5       6       7       8       9
DTABLE2        1       2       3       4       5       6       7       8       9
DTI,ESTDATA       1       2       3       4       5       6       7       8       9
DTI,INDTA       1       2       3       4       5       6       7       8       9
DTI,SETREE       1       2       3       4       5       6       7       8       9
DTI,SPECSEL       1       2       3       4       5       6       7       8       9
DTI,SPSEL       1       2       3       4       5       6       7       8       9
DTI,UNITS       1       2       3       4       5       6       7       8       9
DTI            1       2       3       4       5       6       7       8       9
DVBSHAP        1       2       3       4       5       6       7       8       9
DVCREL1        1       2       3       4       5       6       7       8       9
DVCREL2        1       2       3       4       5       6       7       8       9
DVGRID         1       2       3       4       5       6       7       8       9
DVLREL1        1       2       3       4       5       6       7       8       9
DVMREL1        1       2       3       4       5       6       7       8       9
DVMREL2        1       2       3       4       5       6       7       8       9
DVPREL1        1       2       3       4       5       6       7       8       9
DVPREL2        1       2       3       4       5       6       7       8       9
DVPSURF        1       2       3       4       5       6       7       8       9
DVSHAP         1       2       3       4       5       6       7       8       9
DYFSISW        1       2       3       4       5       6       7       8       9
ECHOOFF        1       2       3       4       5       6       7       8       9
ECHOON         1       2       3       4       5       6       7       8       9
EIGB           1       2       3       4       5       6       7       8       9
EIGC           1       2       3       4       5       6       7       8       9
EIGP           1       2       3       4       5       6       7       8       9
EIGR           1       2       3       4       5       6       7       8       9
EIGRL          1       2       3       4       5       6       7       8       9
ELEMUDS        1       2       3       4       5       6       7       8       9
ELIST          1       2       3       4       5       6       7       8       9
ENDDATA        1       2       3       4       5       6       7       8       9
ENDDYNA        1       2       3       4       5       6       7       8       9
EOSDEF         1       2       3       4       5       6       7       8       9
EOSGAM         1       2       3       4       5       6       7       8       9
EOSIG          1       2       3       4       5       6       7       8       9
EOSJWL         1       2       3       4       5       6       7       8       9
EOSMG          1       2       3       4       5       6       7       8       9
EOSNA          1       2       3       4       5       6       7       8       9
EOSPOL         1       2       3       4       5       6       7       8       9
EOSUDS         1       2       3       4       5       6       7       8       9
EPOINT         1       2       3       4       5       6       7       8       9
ERPPNL         1       2       3       4       5       6       7       8       9
EULFOR         1       2       3       4       5       6       7       8       9
EULFOR1        1       2       3       4       5       6       7       8       9
EULFREG        1       2       3       4       5       6       7       8       9
EXCLUDE        1       2       3       4       5       6       7       8       9
EXTRN          1       2       3       4       5       6       7       8       9
FAILJC         1       2       3       4       5       6       7       8       9
FAILMPS        1       2       3       4       5       6       7       8       9
FAILUDS        1       2       3       4       5       6       7       8       9
FBADLAY        1       2       3       4       5       6       7       8       9
FBALOAD        1       2       3       4       5       6       7       8       9
FBAPHAS        1       2       3       4       5       6       7       8       9
FBODYLD        1       2       3       4       5       6       7       8       9
FBODYSB        1       2       3       4       5       6       7       8       9
FFCONTR        1       2       3       4       5       6       7       8       9
FLFACT         1       2       3       4       5       6       7       8       9
FLOW           1       2       3       4       5       6       7       8       9
FLOWC          1       2       3       4       5       6       7       8       9
FLOWDEF        1       2       3       4       5       6       7       8       9
FLOWT          1       2       3       4       5       6       7       8       9
FLOWUDS        1       2       3       4       5       6       7       8       9
FLSYM          1       2       3       4       5       6       7       8       9
FLUTTER        1       2       3       4       5       6       7       8       9
FORCE          1       2       3       4       5       6       7       8       9
FORCE1         1       2       3       4       5       6       7       8       9
FORCE2         1       2       3       4       5       6       7       8       9
FORCEAX        1       2       3       4       5       6       7       8       9
FORCUDS        1       2       3       4       5       6       7       8       9
FREEPT         1       2       3       4       5       6       7       8       9
FREQ           1       2       3       4       5       6       7       8       9
FREQ1          1       2       3       4       5       6       7       8       9
FREQ2          1       2       3       4       5       6       7       8       9
FREQ3          1       2       3       4       5       6       7       8       9
FREQ4          1       2       3       4       5       6       7       8       9
FREQ5          1       2       3       4       5       6       7       8       9
FRFCOMP        1       2       3       4       5       6       7       8       9
FRFCONN        1       2       3       4       5       6       7       8       9
FRFFLEX        1       2       3       4       5       6       7       8       9
FRFRELS        1       2       3       4       5       6       7       8       9
FRFSPC1        1       2       3       4       5       6       7       8       9
FRFXIT         1       2       3       4       5       6       7       8       9
FRFXIT1        1       2       3       4       5       6       7       8       9
FSICTRL        1       2       3       4       5       6       7       8       9
FSLIST         1       2       3       4       5       6       7       8       9
FTGDEF         1       2       3       4       5       6       7       8       9
FTGEVNT        1       2       3       4       5       6       7       8       9
FTGLOAD        1       2       3       4       5       6       7       8       9
FTGPARM        1       2       3       4       5       6       7       8       9
FTGSEQ         1       2       3       4       5       6       7       8       9
GBAG           1       2       3       4       5       6       7       8       9
GBAGCOU        1       2       3       4       5       6       7       8       9
GENEL          1       2       3       4       5       6       7       8       9
GENUDS         1       2       3       4       5       6       7       8       9
GMBNDC         1       2       3       4       5       6       7       8       9
GMOVR3         1       2       3       4       5       6       7       8       9
GMQVOL         1       2       3       4       5       6       7       8       9
GRAV           1       2       3       4       5       6       7       8       9
GRDSET         1       2       3       4       5       6       7       8       9
GRID           1       2       3       4       5       6       7       8       9
GRIDA          1       2       3       4       5       6       7       8       9
GRIDB          1       2       3       4       5       6       7       8       9
GRIDF          1       2       3       4       5       6       7       8       9
GRIDS          1       2       3       4       5       6       7       8       9
GUST           1       2       3       4       5       6       7       8       9
HADACRI        1       2       3       4       5       6       7       8       9
HADAPTL        1       2       3       4       5       6       7       8       9
HDF5OUT        1       2       3       4       5       6       7       8       9
HEATLOS        1       2       3       4       5       6       7       8       9
HGSUPPR        1       2       3       4       5       6       7       8       9
HTRCONV        1       2       3       4       5       6       7       8       9
HTRRAD         1       2       3       4       5       6       7       8       9
HYBDAMP        1       2       3       4       5       6       7       8       9
HYDROC         1       2       3       4       5       6       7       8       9
HYDROS         1       2       3       4       5       6       7       8       9
HYDSTAT        1       2       3       4       5       6       7       8       9
IMPCASE        1       2       3       4       5       6       7       8       9
IMPGEOM        1       2       3       4       5       6       7       8       9
INCLUDE        1       2       3       4       5       6       7       8       9
INFLCG         1       2       3       4       5       6       7       8       9
INFLFRC        1       2       3       4       5       6       7       8       9
INFLGAS        1       2       3       4       5       6       7       8       9
INFLHB         1       2       3       4       5       6       7       8       9
INFLTNK        1       2       3       4       5       6       7       8       9
INFLTR         1       2       3       4       5       6       7       8       9
INITGAS        1       2       3       4       5       6       7       8       9
IPSTRAIN       1       2       3       4       5       6       7       8       9
ISTRESS        1       2       3       4       5       6       7       8       9
ITER           1       2       3       4       5       6       7       8       9
LBSH3DG        1       2       3       4       5       6       7       8       9
LEAKAGE        1       2       3       4       5       6       7       8       9
LOAD           1       2       3       4       5       6       7       8       9
LOADCLID       1       2       3       4       5       6       7       8       9
LOADCNAM       1       2       3       4       5       6       7       8       9
LOADCSUB       1       2       3       4       5       6       7       8       9
LOADCYH        1       2       3       4       5       6       7       8       9
LOADCYN        1       2       3       4       5       6       7       8       9
LOADCYT        1       2       3       4       5       6       7       8       9
LSEQ           1       2       3       4       5       6       7       8       9
MASSSET        1       2       3       4       5       6       7       8       9
MAT1           1       2       3       4       5       6       7       8       9
MAT10          1       2       3       4       5       6       7       8       9
MAT10F         1       2       3       4       5       6       7       8       9
MAT1A          1       2       3       4       5       6       7       8       9
MAT1F          1       2       3       4       5       6       7       8       9
MAT2           1       2       3       4       5       6       7       8       9
MAT2F          1       2       3       4       5       6       7       8       9
MAT3           1       2       3       4       5       6       7       8       9
MAT4           1       2       3       4       5       6       7       8       9
MAT5           1       2       3       4       5       6       7       8       9
MAT8           1       2       3       4       5       6       7       8       9
MAT8A          1       2       3       4       5       6       7       8       9
MAT8F          1       2       3       4       5       6       7       8       9
MAT9           1       2       3       4       5       6       7       8       9
MAT9F          1       2       3       4       5       6       7       8       9
MATBV          1       2       3       4       5       6       7       8       9
MATCB          1       2       3       4       5       6       7       8       9
MATDEUL        1       2       3       4       5       6       7       8       9
MATDIGI        1       2       3       4       5       6       7       8       9
MATF1          1       2       3       4       5       6       7       8       9
MATFAB         1       2       3       4       5       6       7       8       9
MATFTG         1       2       3       4       5       6       7       8       9
MATF           1       2       3       4       5       6       7       8       9
MATG           1       2       3       4       5       6       7       8       9
MATHE          1       2       3       4       5       6       7       8       9
MATHP          1       2       3       4       5       6       7       8       9
MATORT         1       2       3       4       5       6       7       8       9
MATPE1         1       2       3       4       5       6       7       8       9
MATRIG         1       2       3       4       5       6       7       8       9
MATS1          1       2       3       4       5       6       7       8       9
MATS3          1       2       3       4       5       6       7       8       9
MATS8          1       2       3       4       5       6       7       8       9
MATSMA         1       2       3       4       5       6       7       8       9
MATSORT        1       2       3       4       5       6       7       8       9
MATT1          1       2       3       4       5       6       7       8       9
MATT2          1       2       3       4       5       6       7       8       9
MATT3          1       2       3       4       5       6       7       8       9
MATT4          1       2       3       4       5       6       7       8       9
MATT5          1       2       3       4       5       6       7       8       9
MATT8          1       2       3       4       5       6       7       8       9
MATT9          1       2       3       4       5       6       7       8       9
MATTEP         1       2       3       4       5       6       7       8       9
MATTF          1       2       3       4       5       6       7       8       9
MATTG          1       2       3       4       5       6       7       8       9
MATTHE         1       2       3       4       5       6       7       8       9
MATTORT        1       2       3       4       5       6       7       8       9
MATTUSR        1       2       3       4       5       6       7       8       9
MATTVE         1       2       3       4       5       6       7       8       9
MATUDS         1       2       3       4       5       6       7       8       9
MATUSR         1       2       3       4       5       6       7       8       9
MATVE          1       2       3       4       5       6       7       8       9
MATVP          1       2       3       4       5       6       7       8       9
MCOHE          1       2       3       4       5       6       7       8       9
MDBCATP        1       2       3       4       5       6       7       8       9
MDBCNCT        1       2       3       4       5       6       7       8       9
MDBCPAR        1       2       3       4       5       6       7       8       9
MDBCTB1        1       2       3       4       5       6       7       8       9
MDBKSYS        1       2       3       4       5       6       7       8       9
MDBNDRY        1       2       3       4       5       6       7       8       9
MDBOLT         1       2       3       4       5       6       7       8       9
MDBULK         1       2       3       4       5       6       7       8       9
MDCONCT        1       2       3       4       5       6       7       8       9
MDDMIG         1       2       3       4       5       6       7       8       9
MDEXCLD        1       2       3       4       5       6       7       8       9
MDFAST         1       2       3       4       5       6       7       8       9
MDFSET         1       2       3       4       5       6       7       8       9
MDLABEL        1       2       3       4       5       6       7       8       9
MDLOC          1       2       3       4       5       6       7       8       9
MDLPRM         1       2       3       4       5       6       7       8       9
MDMIR1         1       2       3       4       5       6       7       8       9
MDMIR2         1       2       3       4       5       6       7       8       9
MDMOVE         1       2       3       4       5       6       7       8       9
MDMPC          1       2       3       4       5       6       7       8       9
MDMPLN         1       2       3       4       5       6       7       8       9
MDRBE2         1       2       3       4       5       6       7       8       9
MDRBE3         1       2       3       4       5       6       7       8       9
MDRJNT         1       2       3       4       5       6       7       8       9
MDROT1         1       2       3       4       5       6       7       8       9
MDROT2         1       2       3       4       5       6       7       8       9
MDRROD         1       2       3       4       5       6       7       8       9
MDSEAM         1       2       3       4       5       6       7       8       9
MDSSET         1       2       3       4       5       6       7       8       9
MDTRAN         1       2       3       4       5       6       7       8       9
MDWELD         1       2       3       4       5       6       7       8       9
MESH           1       2       3       4       5       6       7       8       9
METADATA       1       2       3       4       5       6       7       8       9
MFLUID         1       2       3       4       5       6       7       8       9
MKAERO1        1       2       3       4       5       6       7       8       9
MKAERO2        1       2       3       4       5       6       7       8       9
MODTRAK        1       2       3       4       5       6       7       8       9
MOMAX          1       2       3       4       5       6       7       8       9
MOMENT         1       2       3       4       5       6       7       8       9
MOMENT1        1       2       3       4       5       6       7       8       9
MOMENT2        1       2       3       4       5       6       7       8       9
MONCARL        1       2       3       4       5       6       7       8       9
MONCNCM        1       2       3       4       5       6       7       8       9
MONDSP1        1       2       3       4       5       6       7       8       9
MONGRP         1       2       3       4       5       6       7       8       9
MONPNT1        1       2       3       4       5       6       7       8       9
MONPNT2        1       2       3       4       5       6       7       8       9
MONPNT3        1       2       3       4       5       6       7       8       9
MONSUM         1       2       3       4       5       6       7       8       9
MONSUM1        1       2       3       4       5       6       7       8       9
MONSUMT        1       2       3       4       5       6       7       8       9
MOTION         1       2       3       4       5       6       7       8       9
MPC            1       2       3       4       5       6       7       8       9
MPCADD         1       2       3       4       5       6       7       8       9
MPCAX          1       2       3       4       5       6       7       8       9
MPCD           1       2       3       4       5       6       7       8       9
MPCY           1       2       3       4       5       6       7       8       9
NHRMPRM        1       2       3       4       5       6       7       8       9
NLADAPT        1       2       3       4       5       6       7       8       9
NLBSH3D        1       2       3       4       5       6       7       8       9
NLFREQ         1       2       3       4       5       6       7       8       9
NLFREQ1        1       2       3       4       5       6       7       8       9
NLHARM         1       2       3       4       5       6       7       8       9
NLMOPTS        1       2       3       4       5       6       7       8       9
NLOUT          1       2       3       4       5       6       7       8       9
NLOUTUD        1       2       3       4       5       6       7       8       9
NLPARM         1       2       3       4       5       6       7       8       9
NLPCI          1       2       3       4       5       6       7       8       9
NLRGAP         1       2       3       4       5       6       7       8       9
NLRSFD         1       2       3       4       5       6       7       8       9
NLSTEP         1       2       3       4       5       6       7       8       9
NOLIN1         1       2       3       4       5       6       7       8       9
NOLIN2         1       2       3       4       5       6       7       8       9
NOLIN3         1       2       3       4       5       6       7       8       9
NOLIN4         1       2       3       4       5       6       7       8       9
NSM            1       2       3       4       5       6       7       8       9
NSM1           1       2       3       4       5       6       7       8       9
NSMADD         1       2       3       4       5       6       7       8       9
NSML           1       2       3       4       5       6       7       8       9
NSML1          1       2       3       4       5       6       7       8       9
OMIT           1       2       3       4       5       6       7       8       9
OMIT1          1       2       3       4       5       6       7       8       9
OMITAX         1       2       3       4       5       6       7       8       9
PAABSF         1       2       3       4       5       6       7       8       9
PACABS         1       2       3       4       5       6       7       8       9
PACBAR         1       2       3       4       5       6       7       8       9
PACINF         1       2       3       4       5       6       7       8       9
PAERO1         1       2       3       4       5       6       7       8       9
PAERO2         1       2       3       4       5       6       7       8       9
PAERO3         1       2       3       4       5       6       7       8       9
PAERO4         1       2       3       4       5       6       7       8       9
PAERO5         1       2       3       4       5       6       7       8       9
PANEL          1       2       3       4       5       6       7       8       9
PARAM          1       2       3       4       5       6       7       8       9
PAXISYM        1       2       3       4       5       6       7       8       9
PAXSYMH        1       2       3       4       5       6       7       8       9
PBAR           1       2       3       4       5       6       7       8       9
PBARL          1       2       3       4       5       6       7       8       9
PBARN1         1       2       3       4       5       6       7       8       9
PBCOMP         1       2       3       4       5       6       7       8       9
PBEAM          1       2       3       4       5       6       7       8       9
PBEAM3         1       2       3       4       5       6       7       8       9
PBEAMD         1       2       3       4       5       6       7       8       9
PBEAML         1       2       3       4       5       6       7       8       9
PBELT          1       2       3       4       5       6       7       8       9
PBEMN1         1       2       3       4       5       6       7       8       9
PBEND          1       2       3       4       5       6       7       8       9
PBMSECT        1       2       3       4       5       6       7       8       9
PBRSECT        1       2       3       4       5       6       7       8       9
PBSH2DT        1       2       3       4       5       6       7       8       9
PBUSH          1       2       3       4       5       6       7       8       9
PBUSH1D        1       2       3       4       5       6       7       8       9
PBUSH2D        1       2       3       4       5       6       7       8       9
PBUSHT         1       2       3       4       5       6       7       8       9
PCOHE          1       2       3       4       5       6       7       8       9
PCOMP          1       2       3       4       5       6       7       8       9
PCOMPA         1       2       3       4       5       6       7       8       9
PCOMPF         1       2       3       4       5       6       7       8       9
PCOMPFQ        1       2       3       4       5       6       7       8       9
PCOMPG         1       2       3       4       5       6       7       8       9
PCOMPLS        1       2       3       4       5       6       7       8       9
PCONEAX        1       2       3       4       5       6       7       8       9
PCONV          1       2       3       4       5       6       7       8       9
PCONVM         1       2       3       4       5       6       7       8       9
PDAMP          1       2       3       4       5       6       7       8       9
PDAMP5         1       2       3       4       5       6       7       8       9
PDAMPT         1       2       3       4       5       6       7       8       9
PDISTB         1       2       3       4       5       6       7       8       9
PDISTBM        1       2       3       4       5       6       7       8       9
PDUMi          1       2       3       4       5       6       7       8       9
PELAS          1       2       3       4       5       6       7       8       9
PELAS1         1       2       3       4       5       6       7       8       9
PELAST         1       2       3       4       5       6       7       8       9
PERMEAB        1       2       3       4       5       6       7       8       9
PERMGBG        1       2       3       4       5       6       7       8       9
PEULER         1       2       3       4       5       6       7       8       9
PEULER1        1       2       3       4       5       6       7       8       9
PFAST          1       2       3       4       5       6       7       8       9
PFASTT         1       2       3       4       5       6       7       8       9
PFTG           1       2       3       4       5       6       7       8       9
PGAP           1       2       3       4       5       6       7       8       9
PHBDY          1       2       3       4       5       6       7       8       9
PLCOMP         1       2       3       4       5       6       7       8       9
PLOAD          1       2       3       4       5       6       7       8       9
PLOAD1         1       2       3       4       5       6       7       8       9
PLOAD2         1       2       3       4       5       6       7       8       9
PLOAD4         1       2       3       4       5       6       7       8       9
PLOADB3        1       2       3       4       5       6       7       8       9
PLOADX1        1       2       3       4       5       6       7       8       9
PLOTEL         1       2       3       4       5       6       7       8       9
PLPLANE        1       2       3       4       5       6       7       8       9
PLSOLID        1       2       3       4       5       6       7       8       9
PLTSURF        1       2       3       4       5       6       7       8       9
PMARKER        1       2       3       4       5       6       7       8       9
PMASS          1       2       3       4       5       6       7       8       9
PMINC          1       2       3       4       5       6       7       8       9
POINT          1       2       3       4       5       6       7       8       9
POINTAX        1       2       3       4       5       6       7       8       9
PORFCPL        1       2       3       4       5       6       7       8       9
PORFGBG        1       2       3       4       5       6       7       8       9
PORFLOW        1       2       3       4       5       6       7       8       9
PORFLWT        1       2       3       4       5       6       7       8       9
PORHOLE        1       2       3       4       5       6       7       8       9
PORHYDS        1       2       3       4       5       6       7       8       9
PORUDS         1       2       3       4       5       6       7       8       9
PRAC2D         1       2       3       4       5       6       7       8       9
PRAC3D         1       2       3       4       5       6       7       8       9
PRESAX         1       2       3       4       5       6       7       8       9
PRESPT         1       2       3       4       5       6       7       8       9
PROD           1       2       3       4       5       6       7       8       9
PRODN1         1       2       3       4       5       6       7       8       9
PSEAM          1       2       3       4       5       6       7       8       9
PSHEAR         1       2       3       4       5       6       7       8       9
PSHEARN        1       2       3       4       5       6       7       8       9
PSHELL         1       2       3       4       5       6       7       8       9
PSHELL1        1       2       3       4       5       6       7       8       9
PSHLN1         1       2       3       4       5       6       7       8       9
PSHLN2         1       2       3       4       5       6       7       8       9
PSHLPF         1       2       3       4       5       6       7       8       9
PSLDN1         1       2       3       4       5       6       7       8       9
PSOLID         1       2       3       4       5       6       7       8       9
PSPRMAT        1       2       3       4       5       6       7       8       9
PTUBE          1       2       3       4       5       6       7       8       9
PVISC          1       2       3       4       5       6       7       8       9
PVISC1         1       2       3       4       5       6       7       8       9
PWELD          1       2       3       4       5       6       7       8       9
QBDY1          1       2       3       4       5       6       7       8       9
QBDY2          1       2       3       4       5       6       7       8       9
QBDY3          1       2       3       4       5       6       7       8       9
QHBDY          1       2       3       4       5       6       7       8       9
QSET           1       2       3       4       5       6       7       8       9
QSET1          1       2       3       4       5       6       7       8       9
QVECT          1       2       3       4       5       6       7       8       9
QVOL           1       2       3       4       5       6       7       8       9
RADBC          1       2       3       4       5       6       7       8       9
RADBND         1       2       3       4       5       6       7       8       9
RADCAV         1       2       3       4       5       6       7       8       9
RADLST         1       2       3       4       5       6       7       8       9
RADM           1       2       3       4       5       6       7       8       9
RADMT          1       2       3       4       5       6       7       8       9
RADMTX         1       2       3       4       5       6       7       8       9
RADSET         1       2       3       4       5       6       7       8       9
RANDPS         1       2       3       4       5       6       7       8       9
RANDT1         1       2       3       4       5       6       7       8       9
RBAR           1       2       3       4       5       6       7       8       9
RBAR1          1       2       3       4       5       6       7       8       9
RBAX3D         1       2       3       4       5       6       7       8       9
RBE1           1       2       3       4       5       6       7       8       9
RBE2           1       2       3       4       5       6       7       8       9
RBE2GS         1       2       3       4       5       6       7       8       9
RBE3           1       2       3       4       5       6       7       8       9
RBJOINT        1       2       3       4       5       6       7       8       9
RCONN          1       2       3       4       5       6       7       8       9
RCROSS         1       2       3       4       5       6       7       8       9
REFROT         1       2       3       4       5       6       7       8       9
REFRTSE        1       2       3       4       5       6       7       8       9
RELEASE        1       2       3       4       5       6       7       8       9
RELEX          1       2       3       4       5       6       7       8       9
RFORCE         1       2       3       4       5       6       7       8       9
RGYRO          1       2       3       4       5       6       7       8       9
RINGAX         1       2       3       4       5       6       7       8       9
RINGFL         1       2       3       4       5       6       7       8       9
RJOINT         1       2       3       4       5       6       7       8       9
RLOAD1         1       2       3       4       5       6       7       8       9
RLOAD2         1       2       3       4       5       6       7       8       9
ROTBENT        1       2       3       4       5       6       7       8       9
ROTHYBD        1       2       3       4       5       6       7       8       9
ROTOR          1       2       3       4       5       6       7       8       9
ROTORAX        1       2       3       4       5       6       7       8       9
ROTORG         1       2       3       4       5       6       7       8       9
ROTORSE        1       2       3       4       5       6       7       8       9
RROD           1       2       3       4       5       6       7       8       9
RSPINR         1       2       3       4       5       6       7       8       9
RSPINT         1       2       3       4       5       6       7       8       9
RSPLINE        1       2       3       4       5       6       7       8       9
RSSCON         1       2       3       4       5       6       7       8       9
RTRPLT         1       2       3       4       5       6       7       8       9
RTRPLT1        1       2       3       4       5       6       7       8       9
RVDOF          1       2       3       4       5       6       7       8       9
RVDOF1         1       2       3       4       5       6       7       8       9
SEBNDRY        1       2       3       4       5       6       7       8       9
SEBSET         1       2       3       4       5       6       7       8       9
SEBSET1        1       2       3       4       5       6       7       8       9
SEBULK         1       2       3       4       5       6       7       8       9
SECONCT        1       2       3       4       5       6       7       8       9
SECSET         1       2       3       4       5       6       7       8       9
SECSET1        1       2       3       4       5       6       7       8       9
SECTAX         1       2       3       4       5       6       7       8       9
SEDLINK        1       2       3       4       5       6       7       8       9
SEDRSP2        1       2       3       4       5       6       7       8       9
SEDRSP3        1       2       3       4       5       6       7       8       9
SEELT          1       2       3       4       5       6       7       8       9
SEEXCLD        1       2       3       4       5       6       7       8       9
SELABEL        1       2       3       4       5       6       7       8       9
SELOAD         1       2       3       4       5       6       7       8       9
SELOC          1       2       3       4       5       6       7       8       9
SEMPLN         1       2       3       4       5       6       7       8       9
SENQSET        1       2       3       4       5       6       7       8       9
SEQGP          1       2       3       4       5       6       7       8       9
SEQSEP         1       2       3       4       5       6       7       8       9
SEQSET         1       2       3       4       5       6       7       8       9
SEQSET1        1       2       3       4       5       6       7       8       9
SESET          1       2       3       4       5       6       7       8       9
SESUP          1       2       3       4       5       6       7       8       9
SET1           1       2       3       4       5       6       7       8       9
SET2           1       2       3       4       5       6       7       8       9
SET3           1       2       3       4       5       6       7       8       9
SET4           1       2       3       4       5       6       7       8       9
SETREE         1       2       3       4       5       6       7       8       9
SEUSET         1       2       3       4       5       6       7       8       9
SEUSET1        1       2       3       4       5       6       7       8       9
SHREL          1       2       3       4       5       6       7       8       9
SHRPOL         1       2       3       4       5       6       7       8       9
SHRUDS         1       2       3       4       5       6       7       8       9
SLBDY          1       2       3       4       5       6       7       8       9
SLOAD          1       2       3       4       5       6       7       8       9
SLOADN1        1       2       3       4       5       6       7       8       9
SNORM          1       2       3       4       5       6       7       8       9
SPBLND1        1       2       3       4       5       6       7       8       9
SPBLND2        1       2       3       4       5       6       7       8       9
SPC            1       2       3       4       5       6       7       8       9
SPC1           1       2       3       4       5       6       7       8       9
SPCADD         1       2       3       4       5       6       7       8       9
SPCAX          1       2       3       4       5       6       7       8       9
SPCD           1       2       3       4       5       6       7       8       9
SPCOFF         1       2       3       4       5       6       7       8       9
SPCOFF1        1       2       3       4       5       6       7       8       9
SPCR           1       2       3       4       5       6       7       8       9
SPHERE         1       2       3       4       5       6       7       8       9
SPLINE1        1       2       3       4       5       6       7       8       9
SPLINE2        1       2       3       4       5       6       7       8       9
SPLINE3        1       2       3       4       5       6       7       8       9
SPLINE4        1       2       3       4       5       6       7       8       9
SPLINE5        1       2       3       4       5       6       7       8       9
SPLINE6        1       2       3       4       5       6       7       8       9
SPLINE7        1       2       3       4       5       6       7       8       9
SPLINEX        1       2       3       4       5       6       7       8       9
SPLINRB        1       2       3       4       5       6       7       8       9
SPOINT         1       2       3       4       5       6       7       8       9
SPRELAX        1       2       3       4       5       6       7       8       9
STOCHAS        1       2       3       4       5       6       7       8       9
SUPAX          1       2       3       4       5       6       7       8       9
SUPORT         1       2       3       4       5       6       7       8       9
SUPORT1        1       2       3       4       5       6       7       8       9
SURFINI        1       2       3       4       5       6       7       8       9
SWLDPRM        1       2       3       4       5       6       7       8       9
TABDMP1        1       2       3       4       5       6       7       8       9
TABL3D         1       2       3       4       5       6       7       8       9
TABLE3D        1       2       3       4       5       6       7       8       9
TABLED1        1       2       3       4       5       6       7       8       9
TABLED2        1       2       3       4       5       6       7       8       9
TABLED3        1       2       3       4       5       6       7       8       9
TABLED4        1       2       3       4       5       6       7       8       9
TABLED5        1       2       3       4       5       6       7       8       9
TABLEH1        1       2       3       4       5       6       7       8       9
TABLEHT        1       2       3       4       5       6       7       8       9
TABLEM1        1       2       3       4       5       6       7       8       9
TABLEM2        1       2       3       4       5       6       7       8       9
TABLEM3        1       2       3       4       5       6       7       8       9
TABLEM4        1       2       3       4       5       6       7       8       9
TABLES1        1       2       3       4       5       6       7       8       9
TABLEST        1       2       3       4       5       6       7       8       9
TABLFTG        1       2       3       4       5       6       7       8       9
TABLRPC        1       2       3       4       5       6       7       8       9
TABLUDS        1       2       3       4       5       6       7       8       9
TABRND1        1       2       3       4       5       6       7       8       9
TABRNDG        1       2       3       4       5       6       7       8       9
TABSCTL        1       2       3       4       5       6       7       8       9
TCOMPG         1       2       3       4       5       6       7       8       9
TEMP           1       2       3       4       5       6       7       8       9
TEMPAX         1       2       3       4       5       6       7       8       9
TEMPB3         1       2       3       4       5       6       7       8       9
TEMPBC         1       2       3       4       5       6       7       8       9
TEMPD          1       2       3       4       5       6       7       8       9
TEMPN1         1       2       3       4       5       6       7       8       9
TEMPP1         1       2       3       4       5       6       7       8       9
TEMPP3         1       2       3       4       5       6       7       8       9
TEMPRB         1       2       3       4       5       6       7       8       9
TF             1       2       3       4       5       6       7       8       9
THPAD          1       2       3       4       5       6       7       8       9
TIC            1       2       3       4       5       6       7       8       9
TIC3           1       2       3       4       5       6       7       8       9
TICEL          1       2       3       4       5       6       7       8       9
TICEUDS        1       2       3       4       5       6       7       8       9
TICEUL1        1       2       3       4       5       6       7       8       9
TICREG         1       2       3       4       5       6       7       8       9
TICVAL         1       2       3       4       5       6       7       8       9
TIM2PSD        1       2       3       4       5       6       7       8       9
TIRE           1       2       3       4       5       6       7       8       9
TLOAD1         1       2       3       4       5       6       7       8       9
TLOAD2         1       2       3       4       5       6       7       8       9
TMPSET         1       2       3       4       5       6       7       8       9
TODYNA         1       2       3       4       5       6       7       8       9
TOMVAR         1       2       3       4       5       6       7       8       9
TOPVAR         1       2       3       4       5       6       7       8       9
TRIM           1       2       3       4       5       6       7       8       9
TRIM2          1       2       3       4       5       6       7       8       9
TRMCPL         1       2       3       4       5       6       7       8       9
TSTEP          1       2       3       4       5       6       7       8       9
TSTEPNL        1       2       3       4       5       6       7       8       9
TTEMP          1       2       3       4       5       6       7       8       9
UDNAME         1       2       3       4       5       6       7       8       9
UDSESV         1       2       3       4       5       6       7       8       9
UNBALNC        1       2       3       4       5       6       7       8       9
UNGLUE         1       2       3       4       5       6       7       8       9
USET           1       2       3       4       5       6       7       8       9
USET1          1       2       3       4       5       6       7       8       9
UXVEC          1       2       3       4       5       6       7       8       9
VCCT           1       2       3       4       5       6       7       8       9
VIEW           1       2       3       4       5       6       7       8       9
VIEW3D         1       2       3       4       5       6       7       8       9
WALL           1       2       3       4       5       6       7       8       9
WETELME        1       2       3       4       5       6       7       8       9
WETELMG        1       2       3       4       5       6       7       8       9
WETLOAD        1       2       3       4       5       6       7       8       9
WETSURF        1       2       3       4       5       6       7       8       9
YLDHY          1       2       3       4       5       6       7       8       9
YLDJC          1       2       3       4       5       6       7       8       9
YLDMC          1       2       3       4       5       6       7       8       9
YLDMSS         1       2       3       4       5       6       7       8       9
YLDPOL         1       2       3       4       5       6       7       8       9
YLDRPL         1       2       3       4       5       6       7       8       9
YLDSG          1       2       3       4       5       6       7       8       9
YLDTM          1       2       3       4       5       6       7       8       9
YLDUDS         1       2       3       4       5       6       7       8       9
YLDVM          1       2       3       4       5       6       7       8       9
YLDZA          1       2       3       4       5       6       7       8       9
