ID
SOL 101
CEND
    $S700
    A2GG
    ACCELERATION
    ACFPMRESULT
    ACPOWER
    ACTRIM
    ADAMSMNF
    AECONFIG
    AERCONFIG
    AEROF
    AESYMXY
    AESYMXZ
    AEUXREF
    ANALYSIS
    APRESSURE
    AUTOSPC
    AUXCASE
    AUXMODEL
    AVLEXB
    AXISYMMETRIC
    B2GG
    B2PP
    BC
    BCHANGE
    BCMOVE
    BCONCHK
    BCONTACT
    BENDL
    BOUTPUT
    BSQUEAL
    CAMPBELL
    CLOAD
    CMETHOD
    CMSENRGY
    COSMSEL
    CSSCHD
    DBSAVE
    DEACTEL
    DEFORM
    DESGLB
    DESMOD
    DESOBJ
    DESSUB
    DESVAR
    DISPLACEMENT
    DIVERG
    DLOAD
    DRSPAN
    DSAPRT
    DSYM
    DYSTIFF
    ECHO
    EDE
    EKE
    ELAFORCES
    ELSDCON
    ELSENS
    ELSUM
    ENDMODULE
    ENDSTEP
    ENDTIME
    ENTHALPY
    EQUILIBRIUM
    ERP
    ESE
    EXPORTLD
    EXTDRIN
    EXTDROUT
    EXTMDOUT
    EXTSEOUT
    FATIGUE
    FBODYLD
    FEMCHECK
    FLSFSEL
    FLSPOUT
    FLSTCNT
    FLUX
    FMETHOD
    FORCE
    FREQUENCY
    FRF
    GPFORCE
    GPKE
    GPRSORT
    GPSDCON
    GPSTRAIN
    GPSTRESS
    GROUNDCHECK
    GUST
    GVECTOR
    HADAPT
    HARMONICS
    HDOT
    HOUTPUT
    HTFLOW
    IC
    ICF
    IMPERFECT
    INCLUDE
    INTENSITY
    IRLOAD
    K2GG
    K2PP
    K42GG
    LABEL
    LDLABEL
    LINE
    LOAD
    LOADNAME
    LOADSET
    M2GG
    M2PP
    MAPMODES
    MASSSET
    MASTER
    MAXLINES
    MAXMIN(DEF)
    MAXMIN
    MCFRACTION
    MEFFMASS
    METHOD
    MFLUID
    MFREQUENCY
    MODALKE
    MODALSE
    MODES
    MODESELECT
    MODTRAK
    MONCARL
    MONITOR
    MPC
    MPCFORCES
    MPRES
    NLBUCK
    NLHARM
    NLIC
    NLLOAD
    NLOPRM
    NLPARM
    NLRESTART
    NLSTEP
    NLSTRESS
    NONLINEAR
    NOUTPUT
    NSM
    NVELOCITY
    OFREQUENCY
    OIMPERFECT
    OLOAD
    OMODES
    OTIME
    OUTPUT
    P2G
    PACCELERATION
    PAGE
    PARAM
    PARTN
    PEAKOUT
    PFGRID
    PFMODE
    PFPANEL
    PLOTID
    POST
    PRESSURE
    RANDOM
    RANDOUT
    RCROSS
    RELDISP
    REPCASE
    RESVEC
    RGYRO
    RIGID
    ROTBENT
    ROTSEKE
    RSDAMP
    SACCELERATION
    SDAMPING
    SDISPLACEMENT
    SEALL
    SEDAMP
    SEDR
    SEDV
    SEEXCLUDE
    SEFINAL
    SEKREDUCE
    SELGENERATE
    SELREDUCE
    SEMGENERATE
    SEMREDUCE
    SERESP
    SET
    SETP
    SETS DEFINITION
    SKIP
    SLDSKIN
    SMETHOD
    SOLUTION
    SPC
    SPCFORCES
    SPLINOUT
    STATSUB
    STEP
    STOCHASTICS
    STRAIN
    STRESS
    STRFIELD
    SUBCASE
    SUBCOM
    SUBSEQ
    SUBSEQ1
    SUBSTEP
    SUBTITLE
    SUPER
    SUPORT1
    SVECTOR
    SVELOCITY
    SYM
    SYMCOM
    SYMSEQ
    TACCELERATION
    TDISPLACEMENT
    TEMPERATURE
    TFL
    THERMAL
    TIRE
    TRIM
    TRIMF
    TRIMGRP
    TSTEP
    TSTEPNL
    TSTRU
    TVELOCITY
    UNGLUE
    VCCT
    VECTOR
    VELOCITY
    VINTENSITY
    WEIGHTCHECK
    WETSENS
BEGIN BULK
ABINFL         1       2       3       4       5       6       7       8       9
ABSNMVB        1       2       3       4       5       6       7       8       9
ABSNMVI        1       2       3       4       5       6       7       8       9
ABSNMVR        1       2       3       4       5       6       7       8       9
ABSNMVS        1       2       3       4       5       6       7       8       9
ABSTRCT        1       2       3       4       5       6       7       8       9
ACCEL          1       2       3       4       5       6       7       8       9
ACCEL1         1       2       3       4       5       6       7       8       9
ACCSSPT        1       2       3       4       5       6       7       8       9
ACLOAD         1       2       3       4       5       6       7       8       9
ACMODL         1       2       3       4       5       6       7       8       9
ACPEMCP        1       2       3       4       5       6       7       8       9
ACPMCP1        1       2       3       4       5       6       7       8       9
ACSRCE         1       2       3       4       5       6       7       8       9
ACTRIM         1       2       3       4       5       6       7       8       9
ADUMi          1       2       3       4       5       6       7       8       9
AECOMP         1       2       3       4       5       6       7       8       9
AECOMPL        1       2       3       4       5       6       7       8       9
AEDW           1       2       3       4       5       6       7       8       9
AEFACT         1       2       3       4       5       6       7       8       9
AEFORCE        1       2       3       4       5       6       7       8       9
AEGRID         1       2       3       4       5       6       7       8       9
AELINK         1       2       3       4       5       6       7       8       9
AELIST         1       2       3       4       5       6       7       8       9
AELISTC        1       2       3       4       5       6       7       8       9
AEPARM         1       2       3       4       5       6       7       8       9
AEPRESS        1       2       3       4       5       6       7       8       9
AEQUAD4        1       2       3       4       5       6       7       8       9
AERO           1       2       3       4       5       6       7       8       9
AEROS          1       2       3       4       5       6       7       8       9
AESCALE        1       2       3       4       5       6       7       8       9
AESTAT         1       2       3       4       5       6       7       8       9
AESURF         1       2       3       4       5       6       7       8       9
AESURFS        1       2       3       4       5       6       7       8       9
AETRIA3        1       2       3       4       5       6       7       8       9
ASET           1       2       3       4       5       6       7       8       9
ASET1          1       2       3       4       5       6       7       8       9
ATBACC         1       2       3       4       5       6       7       8       9
ATBJNT         1       2       3       4       5       6       7       8       9
ATBSEG         1       2       3       4       5       6       7       8       9
AXIC           1       2       3       4       5       6       7       8       9
AXIF           1       2       3       4       5       6       7       8       9
AXSLOT         1       2       3       4       5       6       7       8       9
BAROR          1       2       3       4       5       6       7       8       9
BARRIER        1       2       3       4       5       6       7       8       9
BCAUTOP        1       2       3       4       5       6       7       8       9
BCBDPRP        1       2       3       4       5       6       7       8       9
BCBMRAD        1       2       3       4       5       6       7       8       9
BCBODY         1       2       3       4       5       6       7       8       9
BCBODY1        1       2       3       4       5       6       7       8       9
BCBOX          1       2       3       4       5       6       7       8       9
BCBZIER        1       2       3       4       5       6       7       8       9
BCELIPS        1       2       3       4       5       6       7       8       9
BCGRID         1       2       3       4       5       6       7       8       9
BCHANGE        1       2       3       4       5       6       7       8       9
BCMATL         1       2       3       4       5       6       7       8       9
BCMOVE         1       2       3       4       5       6       7       8       9
BCNURB2        1       2       3       4       5       6       7       8       9
BCNURBS        1       2       3       4       5       6       7       8       9
BCONECT        1       2       3       4       5       6       7       8       9
BCONP          1       2       3       4       5       6       7       8       9
BCONPRG        1       2       3       4       5       6       7       8       9
BCONPRP        1       2       3       4       5       6       7       8       9
BCONUDS        1       2       3       4       5       6       7       8       9
BCPARA         1       2       3       4       5       6       7       8       9
BCPATCH        1       2       3       4       5       6       7       8       9
BCPFLG         1       2       3       4       5       6       7       8       9
BCPROP         1       2       3       4       5       6       7       8       9
BCRGSRF        1       2       3       4       5       6       7       8       9
BCRIGID        1       2       3       4       5       6       7       8       9
BCSCAP         1       2       3       4       5       6       7       8       9
BCSEG          1       2       3       4       5       6       7       8       9
BCSURF         1       2       3       4       5       6       7       8       9
BCTABL1        1       2       3       4       5       6       7       8       9
BCTABLE        1       2       3       4       5       6       7       8       9
BCTRIM         1       2       3       4       5       6       7       8       9
BDYLIST        1       2       3       4       5       6       7       8       9
BDYOR          1       2       3       4       5       6       7       8       9
BEADVAR        1       2       3       4       5       6       7       8       9
BEAMOR         1       2       3       4       5       6       7       8       9
BFRlC          1       2       3       4       5       6       7       8       9
BIAS           1       2       3       4       5       6       7       8       9
BJOIN          1       2       3       4       5       6       7       8       9
BLSEG          1       2       3       4       5       6       7       8       9
BNDFIX         1       2       3       4       5       6       7       8       9
BNDFIX1        1       2       3       4       5       6       7       8       9
BNDFRE1        1       2       3       4       5       6       7       8       9
BNDFREE        1       2       3       4       5       6       7       8       9
BNDGRID        1       2       3       4       5       6       7       8       9
BOLT           1       2       3       4       5       6       7       8       9
BOLT1          1       2       3       4       5       6       7       8       9
BOUTPUT        1       2       3       4       5       6       7       8       9
BRKPROP        1       2       3       4       5       6       7       8       9
BRKSYS         1       2       3       4       5       6       7       8       9
BSET           1       2       3       4       5       6       7       8       9
BSET1          1       2       3       4       5       6       7       8       9
BSQUEAL        1       2       3       4       5       6       7       8       9
BSURF          1       2       3       4       5       6       7       8       9
BWIDTH         1       2       3       4       5       6       7       8       9
CAABSF         1       2       3       4       5       6       7       8       9
CACINF3        1       2       3       4       5       6       7       8       9
CACINF4        1       2       3       4       5       6       7       8       9
CAERO1         1       2       3       4       5       6       7       8       9
CAERO2         1       2       3       4       5       6       7       8       9
CAERO3         1       2       3       4       5       6       7       8       9
CAERO4         1       2       3       4       5       6       7       8       9
CAERO5         1       2       3       4       5       6       7       8       9
CAMPBLL        1       2       3       4       5       6       7       8       9
CAXIFi         1       2       3       4       5       6       7       8       9
CAXISYM        1       2       3       4       5       6       7       8       9
CBAR           1       2       3       4       5       6       7       8       9
CBARAO         1       2       3       4       5       6       7       8       9
CBEAM          1       2       3       4       5       6       7       8       9
CBEAM3         1       2       3       4       5       6       7       8       9
CBEND          1       2       3       4       5       6       7       8       9
CBUSH          1       2       3       4       5       6       7       8       9
CBUSH1D        1       2       3       4       5       6       7       8       9
CBUSH2D        1       2       3       4       5       6       7       8       9
CCONEAX        1       2       3       4       5       6       7       8       9
CDAMP1         1       2       3       4       5       6       7       8       9
CDAMP1D        1       2       3       4       5       6       7       8       9
CDAMP2         1       2       3       4       5       6       7       8       9
CDAMP2D        1       2       3       4       5       6       7       8       9
CDAMP3         1       2       3       4       5       6       7       8       9
CDAMP4         1       2       3       4       5       6       7       8       9
CDAMP5         1       2       3       4       5       6       7       8       9
CDUMi          1       2       3       4       5       6       7       8       9
CELAS1         1       2       3       4       5       6       7       8       9
CELAS1D        1       2       3       4       5       6       7       8       9
CELAS2         1       2       3       4       5       6       7       8       9
CELAS2D        1       2       3       4       5       6       7       8       9
CELAS3         1       2       3       4       5       6       7       8       9
CELAS4         1       2       3       4       5       6       7       8       9
CFAST          1       2       3       4       5       6       7       8       9
CFLUIDi        1       2       3       4       5       6       7       8       9
CGAP           1       2       3       4       5       6       7       8       9
CHACAB         1       2       3       4       5       6       7       8       9
CHACBR         1       2       3       4       5       6       7       8       9
CHBDYE         1       2       3       4       5       6       7       8       9
CHBDYG         1       2       3       4       5       6       7       8       9
CHBDYP         1       2       3       4       5       6       7       8       9
CHEXA          1       2       3       4       5       6       7       8       9
CIFHEX         1       2       3       4       5       6       7       8       9
CIFPENT        1       2       3       4       5       6       7       8       9
CIFQDX         1       2       3       4       5       6       7       8       9
CIFQUAD        1       2       3       4       5       6       7       8       9
CINTC          1       2       3       4       5       6       7       8       9
CLOAD          1       2       3       4       5       6       7       8       9
CMARKB2        1       2       3       4       5       6       7       8       9
CMARKN1        1       2       3       4       5       6       7       8       9
CMASS1         1       2       3       4       5       6       7       8       9
CMASS2         1       2       3       4       5       6       7       8       9
CMASS3         1       2       3       4       5       6       7       8       9
CMASS4         1       2       3       4       5       6       7       8       9
COHFRIC        1       2       3       4       5       6       7       8       9
COMPUDS        1       2       3       4       5       6       7       8       9
CONCTL         1       2       3       4       5       6       7       8       9
CONM1          1       2       3       4       5       6       7       8       9
CONM2          1       2       3       4       5       6       7       8       9
CONROD         1       2       3       4       5       6       7       8       9
CONTRLT        1       2       3       4       5       6       7       8       9
CONV           1       2       3       4       5       6       7       8       9
CONVM          1       2       3       4       5       6       7       8       9
CORD1C         1       2       3       4       5       6       7       8       9
CORD1R         1       2       3       4       5       6       7       8       9
CORD1S         1       2       3       4       5       6       7       8       9
CORD2C         1       2       3       4       5       6       7       8       9
CORD2R         1       2       3       4       5       6       7       8       9
CORD2S         1       2       3       4       5       6       7       8       9
CORD3G         1       2       3       4       5       6       7       8       9
CORD3R         1       2       3       4       5       6       7       8       9
COSMGRP        1       2       3       4       5       6       7       8       9
COSMINP        1       2       3       4       5       6       7       8       9
COSMOUT        1       2       3       4       5       6       7       8       9
COSMSEL        1       2       3       4       5       6       7       8       9
COSMSRV        1       2       3       4       5       6       7       8       9
COUCOHF        1       2       3       4       5       6       7       8       9
COUOPT         1       2       3       4       5       6       7       8       9
COUP1FL        1       2       3       4       5       6       7       8       9
COUPINT        1       2       3       4       5       6       7       8       9
COUPLE         1       2       3       4       5       6       7       8       9
CPENTA         1       2       3       4       5       6       7       8       9
CPYRAM         1       2       3       4       5       6       7       8       9
CQUAD          1       2       3       4       5       6       7       8       9
CQUAD4         1       2       3       4       5       6       7       8       9
CQUAD8         1       2       3       4       5       6       7       8       9
CQUADR         1       2       3       4       5       6       7       8       9
CQUADX         1       2       3       4       5       6       7       8       9
CRAC2D         1       2       3       4       5       6       7       8       9
CRAC3D         1       2       3       4       5       6       7       8       9
CREEP          1       2       3       4       5       6       7       8       9
CROD           1       2       3       4       5       6       7       8       9
CSEAM          1       2       3       4       5       6       7       8       9
CSET           1       2       3       4       5       6       7       8       9
CSET1          1       2       3       4       5       6       7       8       9
CSHEAR         1       2       3       4       5       6       7       8       9
CSLOT3         1       2       3       4       5       6       7       8       9
CSLOT4         1       2       3       4       5       6       7       8       9
CSPR           1       2       3       4       5       6       7       8       9
CSSCHD         1       2       3       4       5       6       7       8       9
CSUPER         1       2       3       4       5       6       7       8       9
CSUPEXT        1       2       3       4       5       6       7       8       9
CTETRA         1       2       3       4       5       6       7       8       9
CTRIA3         1       2       3       4       5       6       7       8       9
CTRIA6         1       2       3       4       5       6       7       8       9
CTRIAR         1       2       3       4       5       6       7       8       9
CTRIAX         1       2       3       4       5       6       7       8       9
CTRIAX6        1       2       3       4       5       6       7       8       9
CTUBE          1       2       3       4       5       6       7       8       9
CVISC          1       2       3       4       5       6       7       8       9
CWELD          1       2       3       4       5       6       7       8       9
CYAX           1       2       3       4       5       6       7       8       9
CYJOIN         1       2       3       4       5       6       7       8       9
CYLINDR        1       2       3       4       5       6       7       8       9
CYSUP          1       2       3       4       5       6       7       8       9
CYSYM          1       2       3       4       5       6       7       8       9
DAMPING        1       2       3       4       5       6       7       8       9
DAREA          1       2       3       4       5       6       7       8       9
DCONADD        1       2       3       4       5       6       7       8       9
DCONSTR        1       2       3       4       5       6       7       8       9
DDVAL          1       2       3       4       5       6       7       8       9
DEACTEL        1       2       3       4       5       6       7       8       9
DEFORM         1       2       3       4       5       6       7       8       9
DEFUSET        1       2       3       4       5       6       7       8       9
DELAY          1       2       3       4       5       6       7       8       9
DEQATN         1       2       3       4       5       6       7       8       9
DESVAR         1       2       3       4       5       6       7       8       9
DETSPH         1       2       3       4       5       6       7       8       9
DIVERG         1       2       3       4       5       6       7       8       9
DLINK          1       2       3       4       5       6       7       8       9
DLOAD          1       2       3       4       5       6       7       8       9
DMI            1       2       3       4       5       6       7       8       9
DMIAX          1       2       3       4       5       6       7       8       9
DMIG,UACCEL       1       2       3       4       5       6       7       8       9
DMIG           1       2       3       4       5       6       7       8       9
DMIJ           1       2       3       4       5       6       7       8       9
DMIJI          1       2       3       4       5       6       7       8       9
DMIK           1       2       3       4       5       6       7       8       9
DOPTPRM        1       2       3       4       5       6       7       8       9
DPHASE         1       2       3       4       5       6       7       8       9
DRESP1         1       2       3       4       5       6       7       8       9
DRESP2         1       2       3       4       5       6       7       8       9
DRESP3         1       2       3       4       5       6       7       8       9
DSCREEN        1       2       3       4       5       6       7       8       9
DTABLE         1       2       3       4       5       6       7       8       9
DTABLE2        1       2       3       4       5       6       7       8       9
DTI,ESTDATA       1       2       3       4       5       6       7       8       9
DTI,INDTA       1       2       3       4       5       6       7       8       9
DTI,SETREE       1       2       3       4       5       6       7       8       9
DTI,SPECSEL       1       2       3       4       5       6       7       8       9
DTI,SPSEL       1       2       3       4       5       6       7       8       9
DTI,UNITS       1       2       3       4       5       6       7       8       9
DTI            1       2       3       4       5       6       7       8       9
DVBSHAP        1       2       3       4       5       6       7       8       9
DVCREL1        1       2       3       4       5       6       7       8       9
DVCREL2        1       2       3       4       5       6       7       8       9
DVGRID         1       2       3       4       5       6       7       8       9
DVLREL1        1       2       3       4       5       6       7       8       9
DVMREL1        1       2       3       4       5       6       7       8       9
DVMREL2        1       2       3       4       5       6       7       8       9
DVPREL1        1       2       3       4       5       6       7       8       9
DVPREL2        1       2       3       4       5       6       7       8       9
DVPSURF        1       2       3       4       5       6       7       8       9
DVSHAP         1       2       3       4       5       6       7       8       9
DYFSISW        1       2       3       4       5       6       7       8       9
ECHOOFF        1       2       3       4       5       6       7       8       9
ECHOON         1       2       3       4       5       6       7       8       9
EIGB           1       2       3       4       5       6       7       8       9
EIGC           1       2       3       4       5       6       7       8       9
EIGP           1       2       3       4       5       6       7       8       9
EIGR           1       2       3       4       5       6       7       8       9
EIGRL          1       2       3       4       5       6       7       8       9
ELEMUDS        1       2       3       4       5       6       7       8       9
ELIST          1       2       3       4       5       6       7       8       9
ENDDATA        1       2       3       4       5       6       7       8       9
ENDDYNA        1       2       3       4       5       6       7       8       9
EOSDEF         1       2       3       4       5       6       7       8       9
EOSGAM         1       2       3       4       5       6       7       8       9
EOSIG          1       2       3       4       5       6       7       8       9
EOSJWL         1       2       3       4       5       6       7       8       9
EOSMG          1       2       3       4       5       6       7       8       9
EOSNA          1       2       3       4       5       6       7       8       9
EOSPOL         1       2       3       4       5       6       7       8       9
EOSUDS         1       2       3       4       5       6       7       8       9
EPOINT         1       2       3       4       5       6       7       8       9
ERPPNL         1       2       3       4       5       6       7       8       9
EULFOR         1       2       3       4       5       6       7       8       9
EULFOR1        1       2       3       4       5       6       7       8       9
EULFREG        1       2       3       4       5       6       7       8       9
EXCLUDE        1       2       3       4       5       6       7       8       9
EXTRN          1       2       3       4       5       6       7       8       9
FAILJC         1       2       3       4       5       6       7       8       9
FAILMPS        1       2       3       4       5       6       7       8       9
FAILUDS        1       2       3       4       5       6       7       8       9
FBADLAY        1       2       3       4       5       6       7       8       9
FBALOAD        1       2       3       4       5       6       7       8       9
FBAPHAS        1       2       3       4       5       6       7       8       9
FBODYLD        1       2       3       4       5       6       7       8       9
FBODYSB        1       2       3       4       5       6       7       8       9
FFCONTR        1       2       3       4       5       6       7       8       9
FLFACT         1       2       3       4       5       6       7       8       9
FLOW           1       2       3       4       5       6       7       8       9
FLOWC          1       2       3       4       5       6       7       8       9
FLOWDEF        1       2       3       4       5       6       7       8       9
FLOWT          1       2       3       4       5       6       7       8       9
FLOWUDS        1       2       3       4       5       6       7       8       9
FLSYM          1       2       3       4       5       6       7       8       9
FLUTTER        1       2       3       4       5       6       7       8       9
FORCE          1       2       3       4       5       6       7       8       9
FORCE1         1       2       3       4       5       6       7       8       9
FORCE2         1       2       3       4       5       6       7       8       9
FORCEAX        1       2       3       4       5       6       7       8       9
FORCUDS        1       2       3       4       5       6       7       8       9
FREEPT         1       2       3       4       5       6       7       8       9
FREQ           1       2       3       4       5       6       7       8       9
FREQ1          1       2       3       4       5       6       7       8       9
FREQ2          1       2       3       4       5       6       7       8       9
FREQ3          1       2       3       4       5       6       7       8       9
FREQ4          1       2       3       4       5       6       7       8       9
FREQ5          1       2       3       4       5       6       7       8       9
FRFCOMP        1       2       3       4       5       6       7       8       9
FRFCONN        1       2       3       4       5       6       7       8       9
FRFFLEX        1       2       3       4       5       6       7       8       9
FRFRELS        1       2       3       4       5       6       7       8       9
FRFSPC1        1       2       3       4       5       6       7       8       9
FRFXIT         1       2       3       4       5       6       7       8       9
FRFXIT1        1       2       3       4       5       6       7       8       9
FSICTRL        1       2       3       4       5       6       7       8       9
FSLIST         1       2       3       4       5       6       7       8       9
FTGDEF         1       2       3       4       5       6       7       8       9
FTGEVNT        1       2       3       4       5       6       7       8       9
FTGLOAD        1       2       3       4       5       6       7       8       9
FTGPARM        1       2       3       4       5       6       7       8       9
FTGSEQ         1       2       3       4       5       6       7       8       9
GBAG           1       2       3       4       5       6       7       8       9
GBAGCOU        1       2       3       4       5       6       7       8       9
GENEL          1       2       3       4       5       6       7       8       9
GENUDS         1       2       3       4       5       6       7       8       9
GMBNDC         1       2       3       4       5       6       7       8       9
GMOVR3         1       2       3       4       5       6       7       8       9
GMQVOL         1       2       3       4       5       6       7       8       9
GRAV           1       2       3       4       5       6       7       8       9
GRDSET         1       2       3       4       5       6       7       8       9
GRID           1       2       3       4       5       6       7       8       9
GRIDA          1       2       3       4       5       6       7       8       9
GRIDB          1       2       3       4       5       6       7       8       9
GRIDF          1       2       3       4       5       6       7       8       9
GRIDS          1       2       3       4       5       6       7       8       9
GUST           1       2       3       4       5       6       7       8       9
HADACRI        1       2       3       4       5       6       7       8       9
HADAPTL        1       2       3       4       5       6       7       8       9
HDF5OUT        1       2       3       4       5       6       7       8       9
HEATLOS        1       2       3       4       5       6       7       8       9
HGSUPPR        1       2       3       4       5       6       7       8       9
HTRCONV        1       2       3       4       5       6       7       8       9
HTRRAD         1       2       3       4       5       6       7       8       9
HYBDAMP        1       2       3       4       5       6       7       8       9
HYDROC         1       2       3       4       5       6       7       8       9
HYDROS         1       2       3       4       5       6       7       8       9
HYDSTAT        1       2       3       4       5       6       7       8       9
IMPCASE        1       2       3       4       5       6       7       8       9
IMPGEOM        1       2       3       4       5       6       7       8       9
INCLUDE        1       2       3       4       5       6       7       8       9
INFLCG         1       2       3       4       5       6       7       8       9
INFLFRC        1       2       3       4       5       6       7       8       9
INFLGAS        1       2       3       4       5       6       7       8       9
INFLHB         1       2       3       4       5       6       7       8       9
INFLTNK        1       2       3       4       5       6       7       8       9
INFLTR         1       2       3       4       5       6       7       8       9
INITGAS        1       2       3       4       5       6       7       8       9
IPSTRAIN       1       2       3       4       5       6       7       8       9
ISTRESS        1       2       3       4       5       6       7       8       9
ITER           1       2       3       4       5       6       7       8       9
LBSH3DG        1       2       3       4       5       6       7       8       9
LEAKAGE        1       2       3       4       5       6       7       8       9
LOAD           1       2       3       4       5       6       7       8       9
LOADCLID       1       2       3       4       5       6       7       8       9
LOADCNAM       1       2       3       4       5       6       7       8       9
LOADCSUB       1       2       3       4       5       6       7       8       9
LOADCYH        1       2       3       4       5       6       7       8       9
LOADCYN        1       2       3       4       5       6       7       8       9
LOADCYT        1       2       3       4       5       6       7       8       9
LSEQ           1       2       3       4       5       6       7       8       9
MASSSET        1       2       3       4       5       6       7       8       9
MAT1           1       2       3       4       5       6       7       8       9
MAT10          1       2       3       4       5       6       7       8       9
MAT10F         1       2       3       4       5       6       7       8       9
MAT1A          1       2       3       4       5       6       7       8       9
MAT1F          1       2       3       4       5       6       7       8       9
MAT2           1       2       3       4       5       6       7       8       9
MAT2F          1       2       3       4       5       6       7       8       9
MAT3           1       2       3       4       5       6       7       8       9
MAT4           1       2       3       4       5       6       7       8       9
MAT5           1       2       3       4       5       6       7       8       9
MAT8           1       2       3       4       5       6       7       8       9
MAT8A          1       2       3       4       5       6       7       8       9
MAT8F          1       2       3       4       5       6       7       8       9
MAT9           1       2       3       4       5       6       7       8       9
MAT9F          1       2       3       4       5       6       7       8       9
MATBV          1       2       3       4       5       6       7       8       9
MATCB          1       2       3       4       5       6       7       8       9
MATDEUL        1       2       3       4       5       6       7       8       9
MATDIGI        1       2       3       4       5       6       7       8       9
MATF1          1       2       3       4       5       6       7       8       9
MATFAB         1       2       3       4       5       6       7       8       9
MATFTG         1       2       3       4       5       6       7       8       9
MATF           1       2       3       4       5       6       7       8       9
